Circuit: * C:\Users\banth\Desktop\3rd Sem Subjects\Signet Lab\19CS10039_Kaushal_SNLABEXP2\Part2\B\Draft1.asc

Direct Newton iteration for .op point succeeded.

Date: Wed Nov 04 22:26:36 2020
Total elapsed time: 0.212 seconds.

tnom = 27
temp = 27
method = modified trap
totiter = 2118
traniter = 2114
tranpoints = 1058
accept = 1055
rejected = 3
matrix size = 9
fillins = 1
solver = Normal
Matrix Compiler1: 440 bytes object code size  0.4/0.4/[0.3]
Matrix Compiler2: off  [0.3]/0.7/0.3

